/*--------------------------------*- C++ -*----------------------------------*\
| =========                 |                                                 |
| \\      /  F ield         | OpenFOAM: The Open Source CFD Toolbox           |
|  \\    /   O peration     | Version:  5                                     |
|   \\  /    A nd           | Web:      www.OpenFOAM.org                      |
|    \\/     M anipulation  |                                                 |
\*---------------------------------------------------------------------------*/
FoamFile
{
    version     2.0;
    format      ascii;
    class       dictionary;
    location    "constant";
    object      transportProperties;
}
// * * * * * * * * * * * * * * * * * * * * * * * * * * * * * * * * * * * * * //

rho             [1 -3 0 0 0 0 0] 1520;//密度

nu              [0 2 -1 0 0 0 0] 0.38;//動粘性率

mu              [1 1 -2 0 0 -2 0] 0.00058;//粘性係数(Pa・S)

sigma           [-1 -3 3 0 0 2 0] 13.6;//表面張力

// ************************************************************************* //
